**DIRAC
.TITLE
CO
#.WAVE FUNCTIONS
.PROPERTIES
**GENERAL
.CVALUE    ! activate for ultra-relativistic limit
20.0
**HAMILTONIAN
.DFTAUTO
PBE
**INTEGRALS
*READIN
.UNCONT
**WAVE FUNCTIONS
.SCF
*SCF
.CLOSED SHELL
14
**PROPERTIES
*EXCITATION
.SKIPEP
#B1 :
.EXCITA
2 4
.INTENS
 0
*END OF
