**DIRAC                       
.TITLE
  Testing finite field calculation 
.WAVE F
.ANALYZE
**INTEGRALS
*READIN
.UNCONTRACTED
**HAMILTONIAN
.INTFLG
1 1 0
**WAVE FUNCTIONS
.SCF
.RELCCSD
*SCF
.EVCCNV
1.0D-9  5.0D-07
.CLOSED SHELL
14
# 3p3/2(3) - 2P_3/2 ground state
.OPEN SHELL
1
3/4
# ensure scf convergence - shift 2p+ slightly upwards
#.OLEVEL
#0.05
# gets DFPCMO
.MAXITR
65
**MOLTRA
##  frozen core:   none
##  correlated shells (17 el) : 1s(2) 2s(2) 2p(6) 3s(2) 3p1/2-3p3/2(5)
## deleted shells > 1000 au
.ACTIVE
energy -200.0 1000.0 1.0
.PRPTRA
*PRPTRA
#
#
# alpha_y*NEF_z - alpha_z*NEF_y
#
# common factor is (-c/2) ... Ephraim, why ?
#
.OPERATOR
 'A_x'
 XAVECTOR
 'NEF 003'
 'NEF 002'
 FACTORS
 +1.0
 -1.0  
 COMFACTOR
 -68.51799990D0
**ANALYZE
.MULPOP
*MULPOP
.VECPOP
1..oo
**RELCC
.ENERGY
.TIMING
.PRINT
1
##  all 17 correlated electrons  ##
.NELEC
8,9 
*CCENER
.MAXIT # maximum number of iterations for (0,0) sector
100       
.NTOL
12
.DHOLU
1.0D-4
*CCSORT
.USEOE
# read finite-field perturbed operator of (T-) symmetry
.NFFOPER
1
A_x
0.0000, 0.0001
*END OF
