!
**DIRAC
.TITLE
  Tl atom
.WAVE F
.ANALYZE
**GENERAL
.PCMOUT
**INTEGRALS
*READIN
.UNCONTRACTED
**HAMILTONIAN
.X2C
#.SPINFREE
**WAVE FUNCTIONS
.SCF
.RESOLVE
*SCF
.CLOSED SHELL
42 38
.OPEN SHELL
1
1/0,6
.EVCCNV
1.0E-8 1.0E-6
*RESOLVE
.PRINT
0
**ANALYZE
.MULPOP
*MULPOP
.VECPOP
all
all
*END OF
