**DIRAC
.WAVE FUNCTION
.4INDEX
#.INPTES
**WAVE FUNCTION
.SCF
.RELCCSD
*SCF
.FCKCNV
1.0D-9
.MAXITR
70
.CLOSED SHELL
10
**INTEGRALS
.NUCMOD
1
*TWOINT
.SCREEN
-1
*READIN
.CONTRA
**GENERAL
.SPHTRA
1 1
**HAMILTONIAN
#.X2Cmmf
#.SPINFREE
#.LEVY-LEBLOND
#.LVCORR
.NONREL
#.DOSSSS
#.LEVY-LEBLOND
#.X2Cmmf
**RELCCSD
.PRINT
1
.ENERGY
.EOMCC
*EOMCC
.EE
1 2
.EE
2 2
.EE
3 2
*CCENER
*CCENER
.MAXIT
45
*CCPROJ
.CVS_CORE
-10.0
.FCORE
-10.0
**MOLTRA
#.SCHEME
#4
.ACTIVE
all
**MOLECULE
*COORDINATES
.UNITS
AU
#*SYMMETRY
#.NOSYM
*BASIS
.DEFAULT
cc-pVDZ
*END OF
