**DIRAC
.TITLE
 Fragment P
.WAVE FUNCTION
.ANALYZE
**GENERAL
.ACMOUT
**MOLECULE
*BASIS
.DEFAULT
 STO-2G
**INTEGRALS
*READIN
.UNCONTRACTED
**HAMILTONIAN
.X2C
**WAVE FUNCTIONS
.SCF
*SCF
# P(Z=15): 1s(2) 2s(2) 2p(6) 3s(2) 3p(3)
.CLOSED SHELL
6  6
.OPEN SHEL
1
3/0,6
**ANALYZE
.MULPOP
*END OF
