!
! Calculation of molecular oxygen using the (0,2) sector of Fock space
!
**DIRAC
.TITLE
Molecular oxygen. Ground and excited states (X, a, b).
.WAVE F
.ANALYZE
**HAMILTONIAN
.LVCORR
**WAVE FUNCTIONS
.SCF
.RELCCSD
*SCF
! O2_2- closed shell reference
.CLOSED SHELL
 10 8
#.EVCCNV
#1.E-10 1.E-9
**ANALYZE
.MULPOP
*MULPOP
.VECPOP
all
all
**RELCCSD
.NELEC
 4 4 3 3
.FOCKSP
*CCFSPC
.DOIE2
.NACTH
 2 2 0 0
.MAXIT
100
*END OF
