**DIRAC
.TITLE
Be mit 4Z-Basis nicht relativistisch
.WAVE F
**INTEGRALS
*READIN
#.UNCONTRACT
**HAMILTON
.NONREL
**WAVE FUNCTIONS
.SCF
.POLPRP
*SCF
.CLOSED
 4  0
**MOLTRA
.SCHEME
 4
.ACTIVE
 energy -5.0 20.0 0.01
 energy -5.0 20.0 0.01
**POLPRP
.STATES
 1
 2
**DAVIDSON
.DVROOTS
 12
.DVMAXSP
 400
.DVMAXIT
 10
.DVCONV
 1.0E-06
*END OF

