**DIRAC
.TITLE
  atomic start for UF6
#.OPTIMIZE
.WAVE FUNCTION
.ANALYZE
*OPTIMIZE
.NUMGRA
**INTEGRALS
*READIN
.UNCONTRACTED
**HAMILTONIAN
.X2C
.DFT
BP86
*AMFI
.AMFICH
+4
**WAVE FUNCTION
.SCF
*SCF
.CLOSED SHELL
72 74
.EVCCNV
1.0D-7  5.0D-5
.MAXITR
200 
**ANALYZE
.MULPOP
*MULPOP
.VECPOP
all
all
*END OF
