**DIRAC
.TITLE
  atomic start for UF6
.WAVE FUNCTION
.ANALYZE
**INTEGRALS
*READIN
.UNCONTRACTED
**HAMILTONIAN
.X2C
#.DFT
#BP86
*AMFI
.AMFICH
+4
**WAVE FUNCTION
.SCF
*SCF
# does not depened upon U atom occupation
.ATOMST
AFUXXX 1
1..46
1.00
AFFXXX 2
1,2
1.00
3..5
0.8333
.CLOSED SHELL
72  74
.EVCCNV
1.0D-7  5.0D-5
.MAXITR
200
**ANALYZE
.MULPOP
*MULPOP
.VECPOP
all
all
*END OF
